data_I
_chemical_name_common  '/UiO-67_rot_45'
_cell_length_a 19.01161
_cell_length_b 19.01161
_cell_length_c 19.01161
_cell_angle_alpha 60.00000
_cell_angle_beta  60.00000
_cell_angle_gamma 60.00000
_space_group_name_H-M_alt      'P 1'


loop_
_space_group_symop_operation_xyz
  'x, y, z'

loop_
_atom_site_label
_atom_site_fract_x
_atom_site_fract_y
_atom_site_fract_z
_atom_site_type_symbol
H     0.3532495475879945 0.7138819250005483 0.06385779162685341     H
H     0.6049576823332726 0.24467771485345946 0.020304408606045307     H
H     0.06385779162685357 0.8690107357846042 0.35324954758799443     H
H     0.02030440860604562 1.1300601942072224 0.6049576823332724     H
H     0.0638577916268537 0.35324954758799426 0.713881925000548     H
H     0.020304408606045703 0.6049576823332724 0.24467771485345946     H
H     0.35324954758799476 0.06385779162685348 0.8690107357846039     H
H     0.6049576823332725 0.020304408606045685 1.1300601942072226     H
H     0.7138819250005478 0.0638577916268541 0.35324954758799443     H
H     0.24467771485345954 0.020304408606045665 0.6049576823332725     H
H     0.869010735784604 0.35324954758799443 0.06385779162685382     H
H     1.1300601942072226 0.6049576823332727 0.02030440860604542     H
H     0.4816582543750443 0.5799424342777609 0.0708336245886137     H
H     0.4711591359453995 0.3732901348014065 0.026264965842304186     H
H     0.07083362458861366 0.8675656867585813 0.481658254375044     H
H     0.026264965842304245 1.1292857634108895 0.47115913594539927     H
H     0.070833624588614 0.481658254375044 0.5799424342777612     H
H     0.026264965842304415 0.47115913594539915 0.3732901348014065     H
H     0.4816582543750442 0.07083362458861375 0.8675656867585809     H
H     0.47115913594539904 0.026264965842304137 1.12928576341089     H
H     0.5799424342777608 0.07083362458861417 0.4816582543750441     H
H     0.3732901348014069 0.026264965842304405 0.47115913594539904     H
H     0.8675656867585808 0.48165825437504406 0.07083362458861397     H
H     1.12928576341089 0.47115913594539943 0.02626496584230407     H
H     0.8796044909429259 0.741771363754348 -0.006236692070153931     H
H     0.6326796970735501 -0.05283176839691705 0.2761117320982858     H
H     1.144040339225081 0.2761117320982858 -0.05283176839691743     H
H     0.38486083737287985 -0.006236692070153582 0.7417713637543479     H
H     -0.006236692070153998 0.879604490942926 0.7417713637543479     H
H     0.2761117320982859 0.6326796970735502 -0.05283176839691754     H
H     -0.052831768396917604 1.1440403392250813 0.2761117320982859     H
H     0.7417713637543483 0.3848608373728798 -0.006236692070153931     H
H     0.7417713637543482 -0.006236692070154028 0.8796044909429258     H
H     -0.05283176839691726 0.2761117320982859 0.6326796970735501     H
H     0.27611173209828593 -0.05283176839691769 1.1440403392250813     H
H     -0.00623669207015366 0.7417713637543477 0.3848608373728799     H
H     0.8801449418740922 0.6104028078267497 -0.006530360091712638     H
H     0.5013463315109266 -0.05202426381563229 0.4072662022882426     H
H     1.1434117300164635 0.4072662022882426 -0.0520242638156325     H
H     0.5159826103908711 -0.006530360091712589 0.6104028078267496     H
H     -0.006530360091712922 0.8801449418740918 0.6104028078267496     H
H     0.4072662022882428 0.5013463315109266 -0.05202426381563273     H
H     -0.05202426381563261 1.1434117300164635 0.40726620228824273     H
H     0.6104028078267497 0.515982610390871 -0.006530360091712867     H
H     0.6104028078267497 -0.006530360091712943 0.880144941874092     H
H     -0.05202426381563245 0.40726620228824295 0.5013463315109264     H
H     0.4072662022882428 -0.05202426381563265 1.1434117300164637     H
H     -0.006530360091712764 0.6104028078267496 0.515982610390871     H
H     0.927263 0.927263  0.21821     H
H     0.927263 0.927263 0.927263     H
H      0.21821 0.927263 0.927263     H
H     0.927263  0.21821 0.927263     H
C     0.3659773284314139 0.6662602322300802 0.03897863202509829     C
C     0.6048742636887908 0.30479651991471984 0.014836690532368139     C
C     0.038979383658039275 0.9287842648537179 0.365977221165012     C
C     0.014837442165309403 1.0754929834044316 0.6048741564223888     C
C     0.03897863202509841 0.3659773284314138 0.6662602322300804     C
C     0.014836690532368583 0.6048742636887903 0.3047965199147198     C
C     0.3659772211650122 0.038979383658039345 0.9287842648537179     C
C     0.6048741564223891 0.014837442165309373 1.0754929834044318     C
C     0.6662602322300801 0.03897863202509864 0.3659773284314138     C
C     0.30479651991471973 0.014836690532368517 0.6048742636887906     C
C     0.9287842648537179 0.36597722116501197 0.038979383658039456     C
C     1.0754929834044316 0.6048741564223888 0.014837442165309358     C
C     0.4376921424558712 0.5921002419369619 0.04176830434185771     C
C     0.531029471051959 0.376851333423044 0.01715786312549462     C
C     0.04176830434185754 0.9284393112653093 0.43769214245587107     C
C     0.01715786312549425 1.0749613323995029 0.5310294710519585     C
C     0.041768304341857763 0.43769214245587124 0.5921002419369616     C
C     0.017157863125494964 0.5310294710519586 0.37685133342304383     C
C     0.4376921424558713 0.0417683043418576 0.9284393112653092     C
C     0.5310294710519593 0.017157863125494752 1.0749613323995024     C
C     0.5921002419369619 0.04176830434185796 0.43769214245587107     C
C     0.3768513334230437 0.01715786312549534 0.5310294710519587     C
C     0.9284393112653091 0.43769214245587135 0.04176830434185748     C
C     1.0749613323995026 0.531029471051959 0.01715786312549462     C
C     0.23187899999999997 0.761396 0.002668999999999999     C
C     0.7613960000000001 0.231879 0.004056     C
C     0.0026689999999999756 1.004056 0.23187899999999995     C
C     0.004055999999999965 1.002669 0.761396     C
C     0.002669000000000104 0.23187900000000014 0.761396     C
C     0.004055999999999989 0.7613960000000002 0.23187899999999995     C
C     0.23187899999999997 0.0026690000000000533 1.004056     C
C     0.7613960000000001 0.004056000000000048 1.002669     C
C     0.7613960000000001 0.0026690000000000173 0.23187899999999995     C
C     0.23187900000000014 0.0040560000000000205 0.761396     C
C     1.004056 0.23187899999999995 0.002668999999999999     C
C     1.0026689999999998 0.761396 0.004056     C
C     0.30758900000000017 0.6808789999999998 0.004993     C
C     0.680879 0.3075889999999999 0.006539     C
C     0.004992999999999964 1.006539 0.307589     C
C     0.0065390000000000266 1.004993 0.680879     C
C     0.0049930000000000625 0.307589 0.680879     C
C     0.0065389999999999554 0.680879 0.307589     C
C     0.30758900000000006 0.004993000000000059 1.006539     C
C     0.6808790000000001 0.006539000000000094 1.004993     C
C     0.6808790000000003 0.004993000000000019 0.307589     C
C     0.307589 0.006538999999999999 0.680879     C
C     1.006539 0.307589 0.004993     C
C     1.004993 0.6808789999999998 0.006539     C
C     0.453883856710573 0.5313107008697534 0.00942173291114967     C
C     0.5313882946477813 0.4539986720140116 0.009782173538526843     C
C     0.009422484544090644 1.005384167048834 0.45388374944417137     C
C     0.0097829251714681 1.0048313173399905 0.5313881873813792     C
C     0.00942173291114983 0.4538838567105729 0.5313107008697535     C
C     0.009782173538527067 0.5313882946477809 0.45399867201401156     C
C     0.45388374944417137 0.009422484544090571 1.0053841670488342     C
C     0.5313881873813794 0.009782925171468062 1.0048313173399908     C
C     0.5313107008697534 0.009421732911149925 0.45388385671057313     C
C     0.4539986720140118 0.009782173538527159 0.5313882946477809     C
C     1.005384167048834 0.4538837494441714 0.009422484544090774     C
C     1.0048313173399908 0.5313881873813792 0.009782925171467949     C
C     0.9341092840663232 0.6817494728625854 0.0006176822778483751     C
C     0.6201798053855777 -0.026083621676325486 0.3221334114959059     C
C     1.083770404794842 0.322133411495906 -0.026083621676325913     C
C     0.3835235607932427 0.000617682277848623 0.6817494728625855     C
C     0.0006176822778483176 0.9341092840663234 0.6817494728625855     C
C     0.3221334114959062 0.6201798053855777 -0.02608362167632597     C
C     -0.026083621676325778 1.083770404794842 0.3221334114959059     C
C     0.6817494728625857 0.3835235607932426 0.0006176822778482607     C
C     0.6817494728625856 0.0006176822778484059 0.9341092840663234     C
C     -0.026083621676325826 0.32213341149590596 0.6201798053855777     C
C     0.322133411495906 -0.026083621676326083 1.0837704047948422     C
C     0.0006176822778486901 0.6817494728625852 0.3835235607932426     C
C     0.9344563675680284 0.6081710882074296 0.0014899479262613193     C
C     0.5468175386068969 -0.024519109836932906 0.3946957396394638     C
C     1.0830053740502619 0.3946958469058658 -0.02451986146987432     C
C     0.455881494391431 0.0014906995592026025 0.6081709809410275     C
C     0.0014899479262613009 0.9344563675680287 0.6081710882074293     C
C     0.39469573963946397 0.5468175386068969 -0.024519109836933332     C
C     -0.02451986146987433 1.083005374050262 0.39469584690586557     C
C     0.6081709809410278 0.4558814943914309 0.001490699559202195     C
C     0.6081710882074296 0.001489947926261303 0.9344563675680287     C
C     -0.02451910983693326 0.39469573963946414 0.5468175386068967     C
C     0.39469584690586573 -0.024519861469874334 1.083005374050262     C
C     0.0014906995592024537 0.6081709809410276 0.45588149439143094     C
O     0.20107099999999997 0.791883 0.062478     O
O     0.7918829999999999 0.20107100000000006 -0.05543200000000014     O
O     0.06247799999999997 0.944568 0.20107099999999994     O
O     -0.05543200000000007 1.062478 0.7918829999999998     O
O     0.06247800000000008 0.201071 0.7918829999999998     O
O     -0.05543200000000027 0.7918829999999998 0.20107099999999994     O
O     0.20107100000000008 0.06247800000000006 0.9445679999999997     O
O     0.7918830000000001 -0.05543199999999992 1.0624779999999998     O
O     0.7918830000000001 0.06247800000000003 0.20107099999999994     O
O     0.20107100000000022 -0.05543199999999999 0.7918829999999998     O
O     0.944568 0.20107099999999994 0.062478     O
O     1.0624779999999998 0.7918830000000001 -0.05543200000000014     O
O     0.9401640000000001 0.7946610000000001 0.060952     O
O     0.7946609999999998 -0.059835999999999986 0.204223     O
O     1.0609520000000001 0.20422300000000004 -0.059836     O
O     0.204223 0.060952 0.794661     O
O     0.060952 0.9401640000000001 0.794661     O
O     0.204223 0.7946610000000001 -0.059836     O
O     -0.05983599999999978 1.0609520000000001 0.204223     O
O     0.7946610000000002 0.204223 0.060952     O
O     0.7946609999999998 0.06095200000000012 0.940164     O
O     -0.059835999999999924 0.2042230000000001 0.794661     O
O     0.20422299999999993 -0.059835999999999986 1.060952     O
O     0.06095199999999999 0.794661 0.204223     O
O     0.155508 0.948164 0.948164     O
O     0.948164 0.155508 0.948164     O
O     0.948164 0.948164 0.155508     O
O     0.948164 0.948164 0.948164     O
O     0.883437 0.038854 0.038854     O
O     0.038854 0.883437 0.038854     O
O     0.038854 0.038854 0.883437     O
O     0.038854 0.038854 0.038854     O
Zr    0.092863 0.092863 0.907137    Zr
Zr    0.907137 0.907137 0.092863    Zr
Zr    0.907137 0.092863 0.092863    Zr
Zr    0.092863 0.907137 0.907137    Zr
Zr    0.092863 0.907137 0.092863    Zr
Zr    0.907137 0.092863 0.907137    Zr
