data_I
_chemical_name_common  '/UiO-66_rot_45'
_cell_length_a 14.67267
_cell_length_b 14.67267
_cell_length_c 14.67267
_cell_angle_alpha 60.00000
_cell_angle_beta  60.00000
_cell_angle_gamma 60.00000
_space_group_name_H-M_alt      'P 1'


loop_
_space_group_symop_operation_xyz
  'x, y, z'

loop_
_atom_site_label
_atom_site_fract_x
_atom_site_fract_y
_atom_site_fract_z
_atom_site_type_symbol
C     -0.5006782022363658 -0.010104567980754316 0.10555105242984777     C
C     -0.4182772833649719 -0.09338236346147677 0.4876326366586664     C
C     0.49932179776363406 -0.5947682822127276 -0.010104567980754207     C
C     -0.41827728336497183 0.024027010167782182 -0.0933823634614767     C
C     -0.5006782022363657 0.10555105242984773 0.40523171778727235     C
C     0.5817227166350282 -0.5123673633413335 0.024027010167782168     C
H     -0.4931827195630756 -0.02335365201617633 0.18209836547969505     H
H     -0.34738486553191206 -0.16988879108723287 0.48023586013072045     H
H     0.5068172804369245 -0.6655619939004431 -0.02335365201617634     H
H     -0.347384865531912 0.03703779648842448 -0.16988879108723282     H
H     -0.4931827195630754 0.182098365479695 0.33443800609955676     H
H     0.6526151344680878 -0.5197641398692796 0.037037796488424535     H
C     0.5881323531238939 -0.6005578733048734 0.006212760090489745     C
C     -0.411867646876106 0.006212760090489745 0.0062127600904897315     C
C     -0.4118676468761061 0.006212760090489705 0.3994421266951268     C
C     -0.30881656826982606 0.004048148718604874 0.004048148718604868     C
C     -0.3088165682698261 0.00404814871860486 0.3007202708326165     C
C     0.6911834317301736 -0.6992797291673836 0.004048148718604872     C
O     -0.26724722207022783 -0.07472637229222977 0.07989233042936958     O
O     -0.2672472220702278 -0.07472637229222975 0.26208126393308806     O
O     -0.2672472220702279 0.07989233042936959 -0.07472637229222978     O
O     -0.2672472220702279 0.0798923304293696 0.26208126393308806     O
O     0.7327527779297721 -0.7379187360669119 -0.07472637229222975     O
O     0.732752777929772 -0.7379187360669119 0.07989233042936959     O
O     -0.15125375508900618 0.05041791836300206 0.05041791836300206     O
H     -0.16988879108723282 0.6526151344680879 0.03703779648842448     H
H     -0.023353652016176445 0.5068172804369245 -0.6655619939004431     H
H     -0.0233536520161764 0.1820983654796951 0.5068172804369245     H
H     -0.02335365201617641 0.18209836547969496 0.3344380060995568     H
H     -0.023353652016176302 0.33443800609955693 -0.49318271956307563     H
H     -0.1698887910872328 0.4802358601307204 0.0370377964884244     H
Zr    -0.11979582666147053 -0.11979582666147053 0.11979582666147053    Zr
Zr    -0.11979582666147053 0.11979582666147053 -0.11979582666147053    Zr
Zr    -0.11979582666147053 0.11979582666147053 0.11979582666147053    Zr
H     -0.09439580954463427 -0.09439580954463427 -0.09439580954463427     H
H     -0.09439580954463427 -0.09439580954463427 0.2831874286339028     H
H     -0.09439580954463427 0.2831874286339028 -0.09439580954463427     H
C     -0.010104567980754275 0.40523171778727257 -0.500678202236366     C
C     -0.09338236346147669 0.4876326366586664 0.024027010167782206     C
C     -0.010104567980754316 0.4993217977636343 -0.5947682822127277     C
C     -0.010104567980754332 0.1055510524298477 0.40523171778727246     C
C     -0.010104567980754342 0.10555105242984769 0.49932179776363417     C
C     -0.09338236346147674 0.5817227166350281 0.02402701016778228     C
O     -0.07472637229222975 0.0798923304293696 0.26208126393308806     O
O     -0.07472637229222971 0.26208126393308806 -0.2672472220702279     O
O     -0.07472637229222974 0.26208126393308806 0.07989233042936959     O
O     -0.0747263722922297 0.7327527779297721 0.07989233042936958     O
O     -0.0747263722922297 0.732752777929772 -0.7379187360669119     O
O     -0.07472637229222978 0.07989233042936955 0.7327527779297722     O
O     -0.06730802701012736 -0.06730802701012736 -0.06730802701012736     O
O     -0.06730802701012736 -0.06730802701012736 0.2019240810303821     O
O     -0.06730802701012736 0.2019240810303821 -0.06730802701012736     O
C     0.004048148718604846 0.00404814871860486 0.3007202708326165     C
C     0.004048148718604846 0.3007202708326165 -0.30881656826982623     C
C     0.004048148718604842 0.3007202708326165 0.004048148718604875     C
C     0.004048148718604826 0.004048148718604826 0.6911834317301737     C
C     0.004048148718604891 0.6911834317301738 0.004048148718604868     C
C     0.004048148718604875 0.6911834317301738 -0.6992797291673837     C
C     0.006212760090489705 0.006212760090489705 0.3994421266951268     C
C     0.00621276009048977 0.39944212669512674 -0.4118676468761062     C
C     0.0062127600904897645 0.39944212669512663 0.006212760090489745     C
C     0.006212760090489735 0.5881323531238937 0.0062127600904897315     C
C     0.006212760090489692 0.5881323531238938 -0.6005578733048733     C
C     0.006212760090489779 0.006212760090489724 0.5881323531238938     C
O     0.05041791836300205 0.05041791836300206 0.05041791836300206     O
O     0.05041791836300206 -0.15125375508900618 0.05041791836300205     O
O     0.05041791836300206 0.05041791836300205 -0.15125375508900618     O
O     0.07989233042936958 -0.07472637229222975 0.26208126393308806     O
O     0.07989233042936959 0.26208126393308806 -0.2672472220702279     O
O     0.07989233042936958 0.26208126393308806 -0.07472637229222975     O
O     0.07989233042936959 0.7327527779297721 -0.07472637229222978     O
O     0.07989233042936958 0.732752777929772 -0.7379187360669119     O
O     0.0798923304293695 -0.07472637229222975 0.7327527779297722     O
C     0.1055510524298477 0.49932179776363417 -0.010104567980754318     C
C     0.024027010167782192 0.5817227166350282 -0.5123673633413337     C
C     0.024027010167782182 -0.09338236346147674 0.4876326366586665     C
C     0.024027010167782144 -0.09338236346147669 0.5817227166350282     C
C     0.024027010167782248 0.48763263665866646 -0.41827728336497205     C
C     0.10555105242984776 0.4052317177872724 -0.010104567980754224     C
Zr    0.11979582666147053 -0.11979582666147053 -0.11979582666147053    Zr
Zr    0.11979582666147053 -0.11979582666147053 0.11979582666147053    Zr
Zr    0.11979582666147053 0.11979582666147053 -0.11979582666147053    Zr
H     0.18209836547969496 0.5068172804369245 -0.023353652016176302     H
H     0.037037796488424354 0.652615134468088 -0.5197641398692797     H
H     0.037037796488424465 -0.16988879108723284 0.6526151344680882     H
H     0.037037796488424424 -0.16988879108723284 0.48023586013072045     H
H     0.037037796488424445 0.4802358601307204 -0.34738486553191206     H
H     0.18209836547969507 0.33443800609955693 -0.023353652016176396     H
O     0.2019240810303821 -0.06730802701012736 -0.06730802701012736     O
O     0.26208126393308806 -0.26724722207022783 -0.07472637229222978     O
O     0.26208126393308795 -0.26724722207022783 0.07989233042936958     O
O     -0.7379187360669118 -0.07472637229222975 0.7327527779297722     O
O     -0.7379187360669119 -0.07472637229222977 0.07989233042936959     O
O     -0.7379187360669119 0.07989233042936955 0.7327527779297722     O
O     -0.7379187360669118 0.0798923304293696 -0.07472637229222975     O
H     0.2831874286339028 -0.09439580954463427 -0.09439580954463427     H
C     0.3007202708326164 -0.30881656826982623 0.004048148718604865     C
C     -0.6992797291673835 0.004048148718604854 0.6911834317301737     C
C     -0.6992797291673835 0.004048148718604866 0.004048148718604875     C
C     0.3994421266951267 -0.4118676468761062 0.0062127600904897315     C
C     -0.6005578733048733 0.006212760090489724 0.5881323531238938     C
C     -0.6005578733048733 0.0062127600904897315 0.006212760090489745     C
H     0.33443800609955676 -0.4931827195630756 -0.023353652016176302     H
H     -0.5197641398692796 -0.1698887910872328 0.652615134468088     H
H     -0.6655619939004432 -0.023353652016176344 0.18209836547969505     H
H     0.48023586013072034 -0.347384865531912 0.037037796488424424     H
H     -0.665561993900443 0.18209836547969518 0.5068172804369243     H
H     -0.5197641398692795 0.037037796488424465 -0.16988879108723282     H
C     0.40523171778727246 -0.5006782022363659 -0.010104567980754318     C
C     -0.5123673633413336 -0.09338236346147669 0.5817227166350282     C
C     -0.5947682822127275 -0.010104567980754329 0.10555105242984775     C
C     -0.5947682822127275 0.1055510524298478 0.499321797763634     C
C     -0.5123673633413335 0.024027010167782203 -0.09338236346147671     C
C     0.48763263665866646 -0.4182772833649718 0.02402701016778215     C
